


这是output_solver.txt：

********************************************** 

**** Specfem 3-D Solver - MPI version f90 **** 

********************************************** 

  

Running Git package version of the code: v4.0.0-1-g5275e1f0 

which is Git 5275e1f01a4b1397bb2efb0280091581d8527c84 

dating 2023-03-14 17:36:22 +0100 

  

  

  

  

There are           16  MPI processes 

Processes are numbered from 0 to           15 

  

There is a total of           16  slices 

  

  NDIM =            3 

  

  NGLLX =            5 

  NGLLY =            5 






  NGLLZ =            5 

  

using single precision for the calculations 

  

smallest and largest possible floating-point numbers are:    1.17549435E-38   3.40282347E+38 

  

velocity model:   default  

  

Reading mesh databases... 

   reads binary mesh files: proc***_external_mesh.bin 

   from directory         : ./OUTPUT_FILES/DATABASES_MPI 

  

   simulation w/ acoustic    domain:  F 

   simulation w/ elastic     domain:  T 

   simulation w/ poroelastic domain:  F 

  

   slice 0 has: 

   number of elements acoustic   :           0 

   number of elements elastic    :      148815 

   number of elements poroelastic:           0 

   done 

  

total acoustic elements    :           0 

total elastic elements     :     2400000 

total poroelastic elements :           0 

  

Mesh resolution: 

  

******** 

minimum and maximum number of elements 

and points in the CUBIT + SCOTCH mesh: 

  

NSPEC_global_min =       146971 

NSPEC_global_max =       152205 

NSPEC_global_max / NSPEC_global_min imbalance =    1.03561246      =    3.56124687      % 

NSPEC_global_sum =      2400000 

  

NGLOB_global_min =      9554205 

NGLOB_global_max =      9892025 

NGLOB_global_max / NGLOB_global_min imbalance =    1.03535831      =    3.53582525      % 

NGLOB_global_sum =    156029516 

  

If you have elements of a single type (all acoustic, all elastic, all poroelastic, and without CPML) 

in the whole mesh, then there should be no significant imbalance in the above numbers. 

Otherwise, it is normal to have imbalance in elements and points because the domain decomposer 

compensates for the different cost of different elements by partitioning them unevenly among processes. 

******** 

  

  

******** 

Model: P   velocity min,max =    2000.00000       3000.00000     

Model: S   velocity min,max =    1000.00000       2000.00000     

  

Model: Poisson's ratio min,max =   0.100000001      0.333333343     

******** 

  

********************************************* 

*** Verification of simulation parameters *** 

********************************************* 

  

*** Xmin and Xmax of the model =    0.00000000       300.000000     

*** Ymin and Ymax of the model =    0.00000000       80.0000000     

*** Zmin and Zmax of the model =   -100.000000       0.00000000     

  

*** Max GLL point distance =   0.327331543     

*** Min GLL point distance =   0.172668457     

*** Max/min ratio =    1.89572287     

  

*** Max element size =    1.00000000     

*** Min element size =    1.00000000     

*** Max/min ratio =    1.00000000     

  

*** Minimum period resolved =    1.25000009E-03 

*** Maximum suggested time step =    2.87780767E-05 

  

*** for DT :    1.0000000000000001E-005 

*** Max stability for wave velocities =   0.173743367     

  

Elapsed time for checking mesh resolution in seconds =   0.19480570100000000      

  

****************************************** 

There is a total of           16  slices 

****************************************** 

  

  

kd-tree: 

   total data points:       148815 

   theoretical   number of nodes:       297621 

                tree memory size:    9.08267212     MB 

   actual        number of nodes:       297629 

                tree memory size:    9.08291626     MB 

   maximum depth   :           19 

   creation timing :    4.24621105E-02 (s) 

  

  

sources:            1 

  

******************** 

  locating sources 

******************** 

  

reading source information from ./DATA/FORCESOLUTION file 

  

no UTM projection 

  

  

source #            1 

   source located in slice           11 

                  in element        25880 

                  in elastic domain 

  

   using force point source:  

     xi coordinate of source in that element:    1.0000000000000000      

     eta coordinate of source in that element:   -1.0000000000000000      

     gamma coordinate of source in that element:   -1.0000000000000000      

  

     component of direction vector in East direction:    0.00000000     

     component of direction vector in North direction:    0.00000000     

     component of direction vector in Vertical direction:   -1.00000000     

  

     nu1 =    1.0000000000000000        0.0000000000000000        0.0000000000000000      

     nu2 =    0.0000000000000000        1.0000000000000000        0.0000000000000000      

     nu3 =    0.0000000000000000        0.0000000000000000        1.0000000000000000      

  

     at (x,y,z) coordinates =    40.000000000000000        50.000000000000000        0.0000000000000000      

  

   source time function: 

     using Ricker source time function 

  

     using a source of dominant frequency   0.40000000000000002      

     t0_ricker =    2.9999999999999996      tshift_src =    0.0000000000000000      

  

     lambda_S at dominant frequency =    4330.1269531250000      

     lambda_S at highest significant frequency =    1732.0507812500000      

  

     half duration in frequency:   0.40000000000000002       seconds**(-1) 

  

     time shift:    0.0000000000000000       seconds 

  

   magnitude of the source: 

     factor =    1000000000000.0000      

  

   original (requested) position of the source: 

  

             latitude:    50.000000000000000      

            longitude:    40.000000000000000      

  

                x:    40.000000000000000      

                y:    50.000000000000000      

            depth:    0.0000000000000000       km 

   topo elevation:    0.0000000000000000      

  

   position of the source that will be used: 

  

                x:    40.000000000000000      

                y:    50.000000000000000      

            depth:    0.0000000000000000       km 

                z:    0.0000000000000000      

  

   error in location of the source:    0.00000000      m 

  

  

  

maximum error in location of the sources:    0.00000000      m 

  

  

Elapsed time for detection of sources in seconds =    2.3061156999999999E-002 

  

End of source detection - done 

  

  

receivers: 

  

there are           76  stations in file ./DATA/STATIONS 

saving           16  stations inside the model in file ./DATA/STATIONS_FILTERED 

excluding           60  stations located outside the model 

  

  

Total number of receivers =           16 

  

  

******************** 

  locating receivers 

******************** 

  

reading receiver information from ./DATA/STATIONS_FILTERED file 

  

  

station #            1     DB    X01 

      original latitude:    50.0000000     

      original longitude:    40.0000000     

      original x:    40.0000000     

      original y:    50.0000000     

      original depth:    0.00000000      m 

      horizontal distance:    0.00000000     

      target x, y, z:    40.0000000       50.0000000       0.00000000     

      closest estimate found:    0.00000000      m away 

  

      receiver located in slice           11 

                       in element        25880 

                       in elastic domain 

      at coordinates:  

      xi    =    1.0000000000000000      

      eta   =   -1.0000000000000000      

      gamma =   -1.0000000000000000      

      rotation matrix:  

      nu1 =    1.00000000       0.00000000       0.00000000     

      nu2 =    0.00000000       1.00000000       0.00000000     

      nu3 =    0.00000000       0.00000000       1.00000000     

      x:    40.000000000000000      

      y:    50.000000000000000      

      depth:    0.0000000000000000       m 

      z:    0.0000000000000000      

  

  

  

station #            2     DB    X02 

      original latitude:    52.0000000     

      original longitude:    40.0000000     

      original x:    40.0000000     

      original y:    52.0000000     

      original depth:    0.00000000      m 

      horizontal distance:    2.00000009E-03 

      target x, y, z:    40.0000000       52.0000000       0.00000000     

      closest estimate found:    0.00000000      m away 

  

      receiver located in slice           11 

                       in element        24160 

                       in elastic domain 

      at coordinates:  

      xi    =    1.0000000000000000      

      eta   =   -1.0000000000000000      

      gamma =   -1.0000000000000000      

      rotation matrix:  

      nu1 =    1.00000000       0.00000000       0.00000000     

      nu2 =    0.00000000       1.00000000       0.00000000     

      nu3 =    0.00000000       0.00000000       1.00000000     

      x:    40.000000000000000      

      y:    52.000000000000000      

      depth:    0.0000000000000000       m 

      z:    0.0000000000000000      

  

  

  

station #            3     DB    X03 

      original latitude:    54.0000000     

      original longitude:    40.0000000     

      original x:    40.0000000     

      original y:    54.0000000     

      original depth:    0.00000000      m 

      horizontal distance:    4.00000019E-03 

      target x, y, z:    40.0000000       54.0000000       0.00000000     

      closest estimate found:    0.00000000      m away 

  

      receiver located in slice           11 

                       in element        21580 

                       in elastic domain 

      at coordinates:  

      xi    =    1.0000000000000000      

      eta   =   -1.0000000000000000      

      gamma =    1.0000000000000000      

      rotation matrix:  

      nu1 =    1.00000000       0.00000000       0.00000000     

      nu2 =    0.00000000       1.00000000       0.00000000     

      nu3 =    0.00000000       0.00000000       1.00000000     

      x:    40.000000000000000      

      y:    54.000000000000000      

      depth:    0.0000000000000000       m 

      z:    0.0000000000000000      

  

  

  

station #            4     DB    X04 

      original latitude:    56.0000000     

      original longitude:    40.0000000     

      original x:    40.0000000     

      original y:    56.0000000     

      original depth:    0.00000000      m 

      horizontal distance:    6.00000005E-03 

      target x, y, z:    40.0000000       56.0000000       0.00000000     

      closest estimate found:    0.00000000      m away 

  

      receiver located in slice           11 

                       in element        20720 

                       in elastic domain 

      at coordinates:  

      xi    =    1.0000000000000000      

      eta   =   -1.0000000000000000      

      gamma =   -1.0000000000000000      

      rotation matrix:  

      nu1 =    1.00000000       0.00000000       0.00000000     

      nu2 =    0.00000000       1.00000000       0.00000000     

      nu3 =    0.00000000       0.00000000       1.00000000     

      x:    40.000000000000000      

      y:    56.000000000000000      

      depth:    0.0000000000000000       m 

      z:    0.0000000000000000      

  

  

  

station #            5     DB    X05 

      original latitude:    58.0000000     

      original longitude:    40.0000000     

      original x:    40.0000000     

      original y:    58.0000000     

      original depth:    0.00000000      m 

      horizontal distance:    8.00000038E-03 

      target x, y, z:    40.0000000       58.0000000       0.00000000     

      closest estimate found:    0.00000000      m away 

  

      receiver located in slice           11 

                       in element        19000 

                       in elastic domain 

      at coordinates:  

      xi    =    1.0000000000000000      

      eta   =   -1.0000000000000000      

      gamma =   -1.0000000000000000      

      rotation matrix:  

      nu1 =    1.00000000       0.00000000       0.00000000     

      nu2 =    0.00000000       1.00000000       0.00000000     

      nu3 =    0.00000000       0.00000000       1.00000000     

      x:    40.000000000000000      

      y:    58.000000000000000      

      depth:    0.0000000000000000       m 

      z:    0.0000000000000000      

  

  

  

station #            6     DB    X06 

      original latitude:    60.0000000     

      original longitude:    40.0000000     

      original x:    40.0000000     

      original y:    60.0000000     

      original depth:    0.00000000      m 

      horizontal distance:    9.99999978E-03 

      target x, y, z:    40.0000000       60.0000000       0.00000000     

      closest estimate found:    0.00000000      m away 

  

      receiver located in slice           11 

                       in element        16420 

                       in elastic domain 

      at coordinates:  

      xi    =    1.0000000000000000      

      eta   =   -1.0000000000000000      

      gamma =    1.0000000000000000      

      rotation matrix:  

      nu1 =    1.00000000       0.00000000       0.00000000     

      nu2 =    0.00000000       1.00000000       0.00000000     

      nu3 =    0.00000000       0.00000000       1.00000000     

      x:    40.000000000000000      

      y:    60.000000000000000      

      depth:    0.0000000000000000       m 

      z:    0.0000000000000000      

  

  

  

station #            7     DB    X07 

      original latitude:    62.0000000     

      original longitude:    40.0000000     

      original x:    40.0000000     

      original y:    62.0000000     

      original depth:    0.00000000      m 

      horizontal distance:    1.20000001E-02 

      target x, y, z:    40.0000000       62.0000000       0.00000000     

      closest estimate found:    0.00000000      m away 

  

      receiver located in slice           11 

                       in element        15560 

                       in elastic domain 

      at coordinates:  

      xi    =    1.0000000000000000      

      eta   =   -1.0000000000000000      

      gamma =   -1.0000000000000000      

      rotation matrix:  

      nu1 =    1.00000000       0.00000000       0.00000000     

      nu2 =    0.00000000       1.00000000       0.00000000     

      nu3 =    0.00000000       0.00000000       1.00000000     

      x:    40.000000000000000      

      y:    62.000000000000000      

      depth:    0.0000000000000000       m 

      z:    0.0000000000000000      

  

  

  

station #            8     DB    X08 

      original latitude:    64.0000000     

      original longitude:    40.0000000     

      original x:    40.0000000     

      original y:    64.0000000     

      original depth:    0.00000000      m 

      horizontal distance:    1.40000004E-02 

      target x, y, z:    40.0000000       64.0000000       0.00000000     

      closest estimate found:    0.00000000      m away 

  

      receiver located in slice           11 

                       in element        13840 

                       in elastic domain 

      at coordinates:  

      xi    =    1.0000000000000000      

      eta   =   -1.0000000000000000      

      gamma =   -1.0000000000000000      

      rotation matrix:  

      nu1 =    1.00000000       0.00000000       0.00000000     

      nu2 =    0.00000000       1.00000000       0.00000000     

      nu3 =    0.00000000       0.00000000       1.00000000     

      x:    40.000000000000000      

      y:    64.000000000000000      

      depth:    0.0000000000000000       m 

      z:    0.0000000000000000      

  

  

  

station #            9     DB    X09 

      original latitude:    66.0000000     

      original longitude:    40.0000000     

      original x:    40.0000000     

      original y:    66.0000000     

      original depth:    0.00000000      m 

      horizontal distance:    1.60000008E-02 

      target x, y, z:    40.0000000       66.0000000       0.00000000     

      closest estimate found:    0.00000000      m away 

  

      receiver located in slice           11 

                       in element        11260 

                       in elastic domain 

      at coordinates:  

      xi    =    1.0000000000000000      

      eta   =   -1.0000000000000000      

      gamma =    1.0000000000000000      

      rotation matrix:  

      nu1 =    1.00000000       0.00000000       0.00000000     

      nu2 =    0.00000000       1.00000000       0.00000000     

      nu3 =    0.00000000       0.00000000       1.00000000     

      x:    40.000000000000000      

      y:    66.000000000000000      

      depth:    0.0000000000000000       m 

      z:    0.0000000000000000      

  

  

  

station #           10     DB    X10 

      original latitude:    68.0000000     

      original longitude:    40.0000000     

      original x:    40.0000000     

      original y:    68.0000000     

      original depth:    0.00000000      m 

      horizontal distance:    1.79999992E-02 

      target x, y, z:    40.0000000       68.0000000       0.00000000     

      closest estimate found:    0.00000000      m away 

  

      receiver located in slice           11 

                       in element        10400 

                       in elastic domain 

      at coordinates:  

      xi    =    1.0000000000000000      

      eta   =   -1.0000000000000000      

      gamma =   -1.0000000000000000      

      rotation matrix:  

      nu1 =    1.00000000       0.00000000       0.00000000     

      nu2 =    0.00000000       1.00000000       0.00000000     

      nu3 =    0.00000000       0.00000000       1.00000000     

      x:    40.000000000000000      

      y:    68.000000000000000      

      depth:    0.0000000000000000       m 

      z:    0.0000000000000000      

  

  

  

station #           11     DB    X11 

      original latitude:    70.0000000     

      original longitude:    40.0000000     

      original x:    40.0000000     

      original y:    70.0000000     

      original depth:    0.00000000      m 

      horizontal distance:    1.99999996E-02 

      target x, y, z:    40.0000000       70.0000000       0.00000000     

      closest estimate found:    0.00000000      m away 

  

      receiver located in slice           11 

                       in element         8680 

                       in elastic domain 

      at coordinates:  

      xi    =    1.0000000000000000      

      eta   =   -1.0000000000000000      

      gamma =   -1.0000000000000000      

      rotation matrix:  

      nu1 =    1.00000000       0.00000000       0.00000000     

      nu2 =    0.00000000       1.00000000       0.00000000     

      nu3 =    0.00000000       0.00000000       1.00000000     

      x:    40.000000000000000      

      y:    70.000000000000000      

      depth:    0.0000000000000000       m 

      z:    0.0000000000000000      

  

  

  

station #           12     DB    X12 

      original latitude:    72.0000000     

      original longitude:    40.0000000     

      original x:    40.0000000     

      original y:    72.0000000     

      original depth:    0.00000000      m 

      horizontal distance:    2.19999999E-02 

      target x, y, z:    40.0000000       72.0000000       0.00000000     

      closest estimate found:    0.00000000      m away 

  

      receiver located in slice           11 

                       in element         6100 

                       in elastic domain 

      at coordinates:  

      xi    =    1.0000000000000000      

      eta   =   -1.0000000000000000      

      gamma =    1.0000000000000000      

      rotation matrix:  

      nu1 =    1.00000000       0.00000000       0.00000000     

      nu2 =    0.00000000       1.00000000       0.00000000     

      nu3 =    0.00000000       0.00000000       1.00000000     

      x:    40.000000000000000      

      y:    72.000000000000000      

      depth:    0.0000000000000000       m 

      z:    0.0000000000000000      

  

  

  

station #           13     DB    X13 

      original latitude:    74.0000000     

      original longitude:    40.0000000     

      original x:    40.0000000     

      original y:    74.0000000     

      original depth:    0.00000000      m 

      horizontal distance:    2.40000002E-02 

      target x, y, z:    40.0000000       74.0000000       0.00000000     

      closest estimate found:    0.00000000      m away 

  

      receiver located in slice           11 

                       in element         5240 

                       in elastic domain 

      at coordinates:  

      xi    =    1.0000000000000000      

      eta   =   -1.0000000000000000      

      gamma =   -1.0000000000000000      

      rotation matrix:  

      nu1 =    1.00000000       0.00000000       0.00000000     

      nu2 =    0.00000000       1.00000000       0.00000000     

      nu3 =    0.00000000       0.00000000       1.00000000     

      x:    40.000000000000000      

      y:    74.000000000000000      

      depth:    0.0000000000000000       m 

      z:    0.0000000000000000      

  

  

  

station #           14     DB    X14 

      original latitude:    76.0000000     

      original longitude:    40.0000000     

      original x:    40.0000000     

      original y:    76.0000000     

      original depth:    0.00000000      m 

      horizontal distance:    2.60000005E-02 

      target x, y, z:    40.0000000       76.0000000       0.00000000     

      closest estimate found:    0.00000000      m away 

  

      receiver located in slice           11 

                       in element         3520 

                       in elastic domain 

      at coordinates:  

      xi    =    1.0000000000000000      

      eta   =   -1.0000000000000000      

      gamma =   -1.0000000000000000      

      rotation matrix:  

      nu1 =    1.00000000       0.00000000       0.00000000     

      nu2 =    0.00000000       1.00000000       0.00000000     

      nu3 =    0.00000000       0.00000000       1.00000000     

      x:    40.000000000000000      

      y:    76.000000000000000      

      depth:    0.0000000000000000       m 

      z:    0.0000000000000000      

  

  

  

station #           15     DB    X15 

      original latitude:    78.0000000     

      original longitude:    40.0000000     

      original x:    40.0000000     

      original y:    78.0000000     

      original depth:    0.00000000      m 

      horizontal distance:    2.80000009E-02 

      target x, y, z:    40.0000000       78.0000000       0.00000000     

      closest estimate found:    0.00000000      m away 

  

      receiver located in slice           11 

                       in element          940 

                       in elastic domain 

      at coordinates:  

      xi    =    1.0000000000000000      

      eta   =   -1.0000000000000000      

      gamma =    1.0000000000000000      

      rotation matrix:  

      nu1 =    1.00000000       0.00000000       0.00000000     

      nu2 =    0.00000000       1.00000000       0.00000000     

      nu3 =    0.00000000       0.00000000       1.00000000     

      x:    40.000000000000000      

      y:    78.000000000000000      

      depth:    0.0000000000000000       m 

      z:    0.0000000000000000      

  

  

  

station #           16     DB    X16 

      original latitude:    80.0000000     

      original longitude:    40.0000000     

      original x:    40.0000000     

      original y:    80.0000000     

      original depth:    0.00000000      m 

      horizontal distance:    2.99999993E-02 

      target x, y, z:    40.0000000       80.0000000       0.00000000     

      closest estimate found:    0.00000000      m away 

  

      receiver located in slice           11 

                       in element           80 

                       in elastic domain 

      at coordinates:  

      xi    =    1.0000000000000000      

      eta   =   -1.0000000000000000      

      gamma =   -1.0000000000000000      

      rotation matrix:  

      nu1 =    1.00000000       0.00000000       0.00000000     

      nu2 =    0.00000000       1.00000000       0.00000000     

      nu3 =    0.00000000       0.00000000       1.00000000     

      x:    40.000000000000000      

      y:    80.000000000000000      

      depth:    0.0000000000000000       m 

      z:    0.0000000000000000      

  

  

maximum error in location of all the receivers:    0.00000000      m 

  

Elapsed time for receiver detection in seconds =   0.53041056300000000      

  

End of receiver detection - done 

  

found a total of           16  receivers in all the slices 

  

source arrays: 

   number of sources is            1 

   size of source array                 =    1.43051147E-03 MB 

                                        =    1.39698386E-06 GB 

  

seismograms: 

   seismograms written by all processes 

  

   Total number of simulation steps (NSTEP)                       =        30000 

   writing out seismograms at every NTSTEP_BETWEEN_OUTPUT_SEISMOS =        10000 

   number of subsampling steps for seismograms                    =            1 

   Total number of samples for seismograms                        =        30000 

  

   maximum number of local receivers is           16  in slice           11 

   size of maximum seismogram array       =    5.49316406     MB 

                                          =    5.36441803E-03 GB 

  

  

Total number of samples for seismograms =        30000 

  

  

Simulation setup: 

  

   no acoustic simulation 

incorporating elastic simulation 

   no poroelastic simulation 

  

   no attenuation 

   no anisotropy 

   no oceans 

   no gravity 

   no movie simulation 

  

  

preparing mass matrices 

preparing constants 

preparing wavefields 

preparing fault simulation 

   no dynamic faults 

   no kinematic faults 

   no fault simulation 

preparing gravity 

   no gravity simulation 

preparing Stacey absorbing boundaries 

preparing optimized arrays 

   number of regular shaped elements  :            0 

   number of irregular shaped elements:       148815 

   fused array done 

   bandwidth test (STREAM TRIAD):  

      memory accesses =    332.117828     MB 

      timing  min/max =   0.140629575     s /   0.141592413     s 

      timing      avg =   0.141265541     s 

      bandwidth       =    2.29591608     GB/s 

  

  

Elapsed time for preparing timerun in seconds =    2.8295259659999998      

  

************ 

  time loop 

************ 

               scheme:         Newmark 

  

            time step:    9.99999975E-06  s 

number of time steps:        30000 

total simulated time:   0.300000012      seconds 

start time:  -3.00000000      seconds 

  

All processes are synchronized before the time loop 

  

Starting time iteration loop... 

  

Time step #            5 

Time:   -2.99995995      seconds 

Elapsed time in seconds =    5.3213082759999999      

Elapsed time in hh:mm:ss =      0 h 00 m 05 s 

Mean elapsed time per time step in seconds =    1.06426167     

Max norm displacement vector U in all slices (m) =    1.03073400E-02 

Time steps done =            5  out of        30000 

Time steps remaining =        29995 

Estimated remaining time in seconds =    31922.5293     

Estimated remaining time in hh:mm:ss =      8 h 52 m 02 s 

Estimated total run time in seconds =    31927.8496     

Estimated total run time in hh:mm:ss =      8 h 52 m 07 s 

We have done    1.66666675E-02 % of that 

The run will finish approximately on (in local time): Sun Apr 16, 2023 05:03 

************************************************************ 

**** BEWARE: the above time estimates are not very reliable 
